Circuit: * C:\Users\giovanni\Desktop\bldc_control\buck\ltspice\Draft2.asc


Date: Wed Mar 09 11:42:53 2022
Total elapsed time: 0.030 seconds.

tnom = 27
temp = 27
method = trap
totiter = 41
traniter = 0
tranpoints = 0
accept = 0
rejected = 0
matrix size = 5
fillins = 0
solver = Normal
Matrix Compiler1: 114 bytes object code size
Matrix Compiler2: 301 bytes object code size
