Circuit: * C:\Users\giovanni\Desktop\bldc_control\buck\ltspice\reverse-polarity.asc

Direct Newton iteration for .op point succeeded.

Date: Mon Mar 14 21:00:09 2022
Total elapsed time: 0.139 seconds.

tnom = 27
temp = 27
method = modified trap
totiter = 2119
traniter = 2086
tranpoints = 1044
accept = 1044
rejected = 0
matrix size = 19
fillins = 4
solver = Normal
Matrix Compiler1: 1.15 KB object code size  0.4/0.2/[0.1]
Matrix Compiler2: 1.51 KB object code size  0.1/0.2/[0.1]

